24
 i =       40, E =      -506.7433998233
  H         7.0934326459        4.9010027619        2.8309072881
  H         6.2694695507        6.2358504392        2.8663855923
  H         3.0681725219        0.4165298702        3.2141485099
  H         3.8742001754        1.7632691397        3.1631571641
  H         8.7374096468        3.8613806315        3.9045530742
  H         9.6908913293        4.3580041798        2.8182043022
  H         1.4436205967        8.3585967729        2.1199989259
  H         0.4960096511        8.8448540501        3.2168595557
  H         8.1726923769        0.4027545033        2.8329534322
  H         8.9843336843        1.7424042060        2.8752822260
  H         2.0144895022        4.9016988504        3.2117993988
  H         1.2054964735        6.2456074231        3.1667259421
  H         3.6442605642        3.8724307738        2.1139760314
  H         4.5932796795        4.3529273129        3.2123281590
  H         6.5036619685        8.3464898137        3.8946272003
  H         5.5429007511        8.8600627987        2.8215821815
  O         6.2139820217        5.2753998983        3.0504316865
  O         3.9573595481        0.7945210680        3.0456255903
  O         8.8333552607        3.8795049004        2.9350174283
  O         1.3550829130        8.3708935846        3.0906360030
  O         9.0509315482        0.7809133972        3.0504049591
  O         1.1240720543        5.2774839012        3.0450420736
  O         3.7324164158        3.8820706475        3.0845392288
  O         6.3955226322        8.3696308091        2.9265863524
